user_container/apps/business_flow/genconf/opendss/modified/master_file.dss
Clear

set DefaultBaseFrequency=60

New Circuit.ieee118bus
~ basekv=138.0 phases=3 pu=1.005 angle=39.69 frequency=60.0 baseMVA=728.5374813610073 puZ1=[0.001, 0.2] !Model=ideal
~ bus1=89_clinchrv
!~ basekv=138.0 phases=3 pu=1.0162276665500547 angle=49.136995333567725 frequency=60.0 baseMVA=7280000.5374813610073 puZ1=[0.001, 0.2] !Model=ideal
/**** Conversion from PSS/E RAW data file ****/

/**** Circuit elements definition ****/

/*** ---- Choose either generators.dss or gens_as_vsrcs.dss ***/

/**** Voltage bases for all buses ****/
Set VoltageBases = [138.0]
Calcv
redirect confirm_kv_bases.dss

set algorithm=NCIM !IgnoreGenQLimits=Yes

!/*
!set maxcontroliter=100 maxiterations=100
!Solve mode = snap
!Solve mode = direct
!*/
!show voltages ln Nodes
!show powers MVA Elem

/*Set mode=daily
Set maxiterations=500
Set stepsize=36s
Set number=50

solve

summary*/